Version 4
SHEET 1 880 680
WIRE -400 -208 -432 -208
WIRE -432 -160 -432 -208
WIRE -432 -32 -432 -80
WIRE 288 -32 288 -112
WIRE -400 16 -432 16
WIRE 48 16 -32 16
WIRE 176 16 128 16
WIRE 224 16 176 16
WIRE 176 48 176 16
WIRE -432 64 -432 16
WIRE 288 96 288 64
WIRE 176 160 176 112
WIRE -432 192 -432 144
WIRE 288 208 288 176
WIRE 480 208 288 208
WIRE 288 224 288 208
WIRE 288 352 288 304
FLAG 288 352 0
FLAG 288 -112 12V
FLAG 176 160 0
FLAG -32 16 0-10V
IOPIN -32 16 In
FLAG -432 192 0
FLAG -400 16 0-10V
IOPIN -400 16 Out
FLAG -432 -32 0
FLAG -400 -208 12V
IOPIN -400 -208 Out
FLAG 480 208 ADC0
IOPIN 480 208 Out
SYMBOL npn 224 -32 R0
SYMATTR InstName Q1
SYMATTR Value BC546B
SYMBOL res 272 80 R0
SYMATTR InstName R1
SYMATTR Value 7.2K
SYMBOL res 272 208 R0
SYMATTR InstName R2
SYMATTR Value 3.9K
SYMBOL res 144 0 R90
WINDOW 0 0 56 VBottom 2
WINDOW 3 32 56 VTop 2
SYMATTR InstName R3
SYMATTR Value 10
SYMBOL cap 160 48 R0
SYMATTR InstName C1
SYMATTR Value 0.1µ
SYMBOL voltage -432 48 R0
WINDOW 123 0 0 Left 0
WINDOW 39 0 0 Left 0
SYMATTR InstName V1
SYMATTR Value PWL(0 0 1 10)
SYMBOL voltage -432 -176 R0
WINDOW 123 0 0 Left 0
WINDOW 39 0 0 Left 0
SYMATTR InstName V2
SYMATTR Value 12
TEXT 608 240 Left 2 ;ESP32
TEXT -466 376 Left 2 !.tran 0 1 0
RECTANGLE Normal 688 368 560 160
